<routes>
        <vType id="car" accel="0.8" decel="4.5" sigma="0.5" length="5" minGap="2.5" maxSpeed="16.67" guiShape="passenger"/>

        <route id="start" edges="4to1" />

        <route id="4to2" edges="4to1 1to2" />
        <route id="4to3" edges="4to1 1to3" />
        <route id="4to5" edges="4to1 1to5" />
        
        <route id="2to3" edges="2to1 1to3" />
        <route id="2to4" edges="2to1 1to4" />
        <route id="2to5" edges="2to1 1to5" />
        
    <vehicle id="AUTO" type="car" route="start" depart="0" color="1,0,0"/>
        
    <vehicle id="left_0" type="car" route="4to3" depart="0" />
    <vehicle id="down_1" type="car" route="2to4" depart="0" />
    <vehicle id="left_2" type="car" route="4to3" depart="1" />
    <vehicle id="down_3" type="car" route="2to4" depart="1" />
    <vehicle id="left_4" type="car" route="4to3" depart="2" />
    <vehicle id="down_5" type="car" route="2to4" depart="2" />
    <vehicle id="left_6" type="car" route="4to3" depart="3" />
    <vehicle id="down_7" type="car" route="2to4" depart="3" />
    <vehicle id="left_8" type="car" route="4to3" depart="4" />
    <vehicle id="down_9" type="car" route="2to4" depart="4" />
    <vehicle id="left_10" type="car" route="4to3" depart="5" />
    <vehicle id="down_11" type="car" route="2to4" depart="5" />
    <vehicle id="left_12" type="car" route="4to3" depart="6" />
    <vehicle id="down_13" type="car" route="2to4" depart="6" />
    <vehicle id="left_14" type="car" route="4to3" depart="7" />
    <vehicle id="down_15" type="car" route="2to4" depart="7" />
    <vehicle id="left_16" type="car" route="4to3" depart="8" />
    <vehicle id="down_17" type="car" route="2to4" depart="8" />
    <vehicle id="left_18" type="car" route="4to3" depart="9" />
    <vehicle id="down_19" type="car" route="2to4" depart="9" />
    <vehicle id="left_20" type="car" route="4to3" depart="10" />
    <vehicle id="down_21" type="car" route="2to4" depart="10" />
    <vehicle id="left_22" type="car" route="4to3" depart="11" />
    <vehicle id="down_23" type="car" route="2to4" depart="11" />
    <vehicle id="left_24" type="car" route="4to3" depart="12" />
    <vehicle id="down_25" type="car" route="2to4" depart="12" />
    <vehicle id="left_26" type="car" route="4to3" depart="13" />
    <vehicle id="down_27" type="car" route="2to4" depart="13" />
    <vehicle id="left_28" type="car" route="4to3" depart="14" />
    <vehicle id="down_29" type="car" route="2to4" depart="14" />
    <vehicle id="left_30" type="car" route="4to3" depart="15" />
    <vehicle id="down_31" type="car" route="2to4" depart="15" />
    <vehicle id="left_32" type="car" route="4to3" depart="16" />
    <vehicle id="down_33" type="car" route="2to4" depart="16" />
    <vehicle id="left_34" type="car" route="4to3" depart="17" />
    <vehicle id="down_35" type="car" route="2to4" depart="17" />
    <vehicle id="left_36" type="car" route="4to3" depart="18" />
    <vehicle id="down_37" type="car" route="2to4" depart="18" />
    <vehicle id="left_38" type="car" route="4to3" depart="19" />
    <vehicle id="down_39" type="car" route="2to4" depart="19" />
    <vehicle id="left_40" type="car" route="4to3" depart="20" />
    <vehicle id="down_41" type="car" route="2to4" depart="20" />
    <vehicle id="left_42" type="car" route="4to3" depart="21" />
    <vehicle id="down_43" type="car" route="2to4" depart="21" />
    <vehicle id="left_44" type="car" route="4to3" depart="22" />
    <vehicle id="down_45" type="car" route="2to4" depart="22" />
    <vehicle id="left_46" type="car" route="4to3" depart="23" />
    <vehicle id="down_47" type="car" route="2to4" depart="23" />
    <vehicle id="left_48" type="car" route="4to3" depart="24" />
    <vehicle id="down_49" type="car" route="2to4" depart="24" />
    <vehicle id="left_50" type="car" route="4to3" depart="25" />
    <vehicle id="down_51" type="car" route="2to4" depart="25" />
    <vehicle id="left_52" type="car" route="4to3" depart="26" />
    <vehicle id="down_53" type="car" route="2to4" depart="26" />
    <vehicle id="left_54" type="car" route="4to3" depart="27" />
    <vehicle id="down_55" type="car" route="2to4" depart="27" />
    <vehicle id="left_56" type="car" route="4to3" depart="28" />
    <vehicle id="down_57" type="car" route="2to4" depart="28" />
    <vehicle id="left_58" type="car" route="4to3" depart="29" />
    <vehicle id="down_59" type="car" route="2to4" depart="29" />
    <vehicle id="left_60" type="car" route="4to3" depart="30" />
    <vehicle id="down_61" type="car" route="2to4" depart="30" />
    <vehicle id="left_62" type="car" route="4to3" depart="31" />
    <vehicle id="down_63" type="car" route="2to4" depart="31" />
    <vehicle id="left_64" type="car" route="4to3" depart="32" />
    <vehicle id="down_65" type="car" route="2to4" depart="32" />
    <vehicle id="left_66" type="car" route="4to3" depart="33" />
    <vehicle id="down_67" type="car" route="2to4" depart="33" />
    <vehicle id="left_68" type="car" route="4to3" depart="34" />
    <vehicle id="down_69" type="car" route="2to4" depart="34" />
    <vehicle id="left_70" type="car" route="4to3" depart="35" />
    <vehicle id="down_71" type="car" route="2to4" depart="35" />
    <vehicle id="left_72" type="car" route="4to3" depart="36" />
    <vehicle id="down_73" type="car" route="2to4" depart="36" />
    <vehicle id="left_74" type="car" route="4to3" depart="37" />
    <vehicle id="down_75" type="car" route="2to4" depart="37" />
    <vehicle id="left_76" type="car" route="4to3" depart="38" />
    <vehicle id="down_77" type="car" route="2to4" depart="38" />
    <vehicle id="left_78" type="car" route="4to3" depart="39" />
    <vehicle id="down_79" type="car" route="2to4" depart="39" />
    <vehicle id="left_80" type="car" route="4to3" depart="40" />
    <vehicle id="down_81" type="car" route="2to4" depart="40" />
    <vehicle id="left_82" type="car" route="4to3" depart="41" />
    <vehicle id="down_83" type="car" route="2to4" depart="41" />
    <vehicle id="left_84" type="car" route="4to3" depart="42" />
    <vehicle id="down_85" type="car" route="2to4" depart="42" />
    <vehicle id="left_86" type="car" route="4to3" depart="43" />
    <vehicle id="down_87" type="car" route="2to4" depart="43" />
    <vehicle id="left_88" type="car" route="4to3" depart="44" />
    <vehicle id="down_89" type="car" route="2to4" depart="44" />
    <vehicle id="left_90" type="car" route="4to3" depart="45" />
    <vehicle id="down_91" type="car" route="2to4" depart="45" />
    <vehicle id="left_92" type="car" route="4to3" depart="46" />
    <vehicle id="down_93" type="car" route="2to4" depart="46" />
    <vehicle id="left_94" type="car" route="4to3" depart="47" />
    <vehicle id="down_95" type="car" route="2to4" depart="47" />
    <vehicle id="left_96" type="car" route="4to3" depart="48" />
    <vehicle id="down_97" type="car" route="2to4" depart="48" />
    <vehicle id="left_98" type="car" route="4to3" depart="49" />
    <vehicle id="down_99" type="car" route="2to4" depart="49" />
</routes>
