<?xml version="1.0" encoding="UTF-8"?>

<!-- generated on 14-Nov-17 11:40:49 AM by Netedit Version 0.30.0
<?xml version="1.0" encoding="UTF-8"?>

<configuration xmlns:xsi="http://www.w3.org/2001/XMLSchema-instance" xsi:noNamespaceSchemaLocation="http://sumo.dlr.de/xsd/netconvertConfiguration.xsd">

    <input>
        <sumo-net-file value="D:\Projects\Windows\ars-sumo\ars\junction.net.xml"/>
    </input>

    <output>
        <output-file value="D:\Projects\Windows\ars-sumo\ars\junction.net.xml"/>
    </output>

    <processing>
        <no-internal-links value="true"/>
        <no-turnarounds value="true"/>
        <offset.disable-normalization value="true"/>
        <lefthand value="false"/>
        <junctions.corner-detail value="0"/>
        <rectangular-lane-cut value="false"/>
    </processing>

</configuration>
-->

<net version="0.27" xmlns:xsi="http://www.w3.org/2001/XMLSchema-instance" xsi:noNamespaceSchemaLocation="http://sumo.dlr.de/xsd/net_file.xsd">

    <location netOffset="250.00,250.00" convBoundary="0.00,0.00,500.00,500.00" origBoundary="-250.00,-250.00,250.00,250.00" projParameter="!"/>

    <edge id="1to2" from="1" to="2" priority="-1">
        <lane id="1to2_0" index="0" speed="13.90" length="250.00" shape="254.75,248.35 500.00,248.35"/>
    </edge>
    <edge id="1to3" from="1" to="3" priority="-1">
        <lane id="1to3_0" index="0" speed="13.90" length="250.00" shape="251.65,254.75 251.65,500.00"/>
    </edge>
    <edge id="1to4" from="1" to="4" priority="-1">
        <lane id="1to4_0" index="0" speed="13.90" length="250.00" shape="245.25,251.65 0.00,251.65"/>
    </edge>
    <edge id="1to5" from="1" to="5" priority="-1">
        <lane id="1to5_0" index="0" speed="13.90" length="250.00" shape="248.35,245.25 248.35,0.00"/>
    </edge>
    <edge id="2to1" from="2" to="1" priority="-1">
        <lane id="2to1_0" index="0" speed="13.90" length="250.00" shape="500.00,251.65 254.75,251.65"/>
    </edge>
    <edge id="3to1" from="3" to="1" priority="-1">
        <lane id="3to1_0" index="0" speed="13.90" length="250.00" shape="248.35,500.00 248.35,254.75"/>
    </edge>
    <edge id="4to1" from="4" to="1" priority="-1">
        <lane id="4to1_0" index="0" speed="13.90" length="250.00" shape="0.00,248.35 245.25,248.35"/>
    </edge>
    <edge id="5to1" from="5" to="1" priority="-1">
        <lane id="5to1_0" index="0" speed="13.90" length="250.00" shape="251.65,0.00 251.65,245.25"/>
    </edge>

    <junction id="1" type="priority" x="250.00" y="250.00" incLanes="3to1_0 2to1_0 5to1_0 4to1_0" intLanes="" shape="246.75,254.75 253.25,254.75 254.75,253.25 254.75,246.75 253.25,245.25 246.75,245.25 245.25,246.75 245.25,253.25">
        <request index="0" response="000000000000" foes="000100010000"/>
        <request index="1" response="000000000000" foes="111100110000"/>
        <request index="2" response="000011000000" foes="110011110000"/>
        <request index="3" response="000010000000" foes="100010000000"/>
        <request index="4" response="000110000111" foes="100110000111"/>
        <request index="5" response="011110000110" foes="011110000110"/>
        <request index="6" response="000000000000" foes="010000000100"/>
        <request index="7" response="000000000000" foes="110000111100"/>
        <request index="8" response="000000000011" foes="110000110011"/>
        <request index="9" response="000000000010" foes="000000100010"/>
        <request index="10" response="000111000110" foes="000111100110"/>
        <request index="11" response="000110011110" foes="000110011110"/>
    </junction>
    <junction id="2" type="priority" x="500.00" y="250.00" incLanes="1to2_0" intLanes="" shape="500.00,250.05 500.00,246.75 500.00,249.95">
        <request index="0" response="0" foes="0"/>
    </junction>
    <junction id="3" type="priority" x="250.00" y="500.00" incLanes="1to3_0" intLanes="" shape="249.95,500.00 253.25,500.00 250.05,500.00">
        <request index="0" response="0" foes="0"/>
    </junction>
    <junction id="4" type="priority" x="0.00" y="250.00" incLanes="1to4_0" intLanes="" shape="0.00,249.95 0.00,253.25 0.00,250.05">
        <request index="0" response="0" foes="0"/>
    </junction>
    <junction id="5" type="priority" x="250.00" y="0.00" incLanes="1to5_0" intLanes="" shape="250.05,0.00 246.75,0.00 249.95,0.00">
        <request index="0" response="0" foes="0"/>
    </junction>

    <connection from="1to2" to="2to1" fromLane="0" toLane="0" dir="t" state="M"/>
    <connection from="1to3" to="3to1" fromLane="0" toLane="0" dir="t" state="M"/>
    <connection from="1to4" to="4to1" fromLane="0" toLane="0" dir="t" state="M"/>
    <connection from="1to5" to="5to1" fromLane="0" toLane="0" dir="t" state="M"/>
    <connection from="2to1" to="1to3" fromLane="0" toLane="0" dir="r" state="m"/>
    <connection from="2to1" to="1to4" fromLane="0" toLane="0" dir="s" state="m"/>
    <connection from="2to1" to="1to5" fromLane="0" toLane="0" dir="l" state="m"/>
    <connection from="3to1" to="1to4" fromLane="0" toLane="0" dir="r" state="M"/>
    <connection from="3to1" to="1to5" fromLane="0" toLane="0" dir="s" state="M"/>
    <connection from="3to1" to="1to2" fromLane="0" toLane="0" dir="l" state="m"/>
    <connection from="4to1" to="1to5" fromLane="0" toLane="0" dir="r" state="m"/>
    <connection from="4to1" to="1to2" fromLane="0" toLane="0" dir="s" state="m"/>
    <connection from="4to1" to="1to3" fromLane="0" toLane="0" dir="l" state="m"/>
    <connection from="5to1" to="1to2" fromLane="0" toLane="0" dir="r" state="M"/>
    <connection from="5to1" to="1to3" fromLane="0" toLane="0" dir="s" state="M"/>
    <connection from="5to1" to="1to4" fromLane="0" toLane="0" dir="l" state="m"/>

</net>
